!- Darwin Line endings 

VERSION,
    24.1;                     !- Version Identifier

BUILDING,
    Generated Building,       !- Name
    0,                        !- North Axis
    Suburbs,                  !- Terrain
    0.04,                     !- Loads Convergence Tolerance Value
    0.4,                      !- Temperature Convergence Tolerance Value
    FullInteriorAndExterior,    !- Solar Distribution
    25,                       !- Maximum Number of Warmup Days
    6;                        !- Minimum Number of Warmup Days

RUNPERIOD,
    Annual,                   !- Name
    1,                        !- Begin Month
    1,                        !- Begin Day of Month
    ,                         !- Begin Year
    12,                       !- End Month
    31,                       !- End Day of Month
    ,                         !- End Year
    ,                         !- Day of Week for Start Day
    Yes,                      !- Use Weather File Holidays and Special Days
    Yes,                      !- Use Weather File Daylight Saving Period
    No,                       !- Apply Weekend Holiday Rule
    Yes,                      !- Use Weather File Rain Indicators
    Yes,                      !- Use Weather File Snow Indicators
    No,                       !- Treat Weather as Actual
    Hour24;                   !- First Hour Interpolation Starting Values

SCHEDULETYPELIMITS,
    Fraction,                 !- Name
    0,                        !- Lower Limit Value
    1,                        !- Upper Limit Value
    CONTINUOUS,               !- Numeric Type
    Dimensionless;            !- Unit Type

SCHEDULETYPELIMITS,
    Temperature,              !- Name
    -50,                      !- Lower Limit Value
    150,                      !- Upper Limit Value
    CONTINUOUS,               !- Numeric Type
    Dimensionless;            !- Unit Type

SCHEDULETYPELIMITS,
    Control Type,             !- Name
    0,                        !- Lower Limit Value
    4,                        !- Upper Limit Value
    DISCRETE,                 !- Numeric Type
    Dimensionless;            !- Unit Type

SCHEDULE:COMPACT,
    Always On,                !- Name
    Fraction,                 !- Schedule Type Limits Name
    Through: 12/31,           !- Field 1
    For: AllDays,             !- Field 2
    Until: 24:00,             !- Field 3
    1;                        !- Field 4

SCHEDULE:COMPACT,
    Yearly Thermostat,        !- Name
    Control Type,             !- Schedule Type Limits Name
    Through: 12/31,           !- Field 1
    For: AllDays,             !- Field 2
    Until: 24:00,             !- Field 3
    4;                        !- Field 4

SCHEDULE:COMPACT,
    Zone Heating Setpoint Schedule,    !- Name
    Temperature,              !- Schedule Type Limits Name
    Through: 12/31,           !- Field 1
    For: AllDays,             !- Field 2
    Until: 24:00,             !- Field 3
    22;                       !- Field 4

SCHEDULE:COMPACT,
    Zone Cooling Setpoint Schedule,    !- Name
    Temperature,              !- Schedule Type Limits Name
    Through: 12/31,           !- Field 1
    For: AllDays,             !- Field 2
    Until: 24:00,             !- Field 3
    24;                       !- Field 4

MATERIAL,
    Ext Wall Mat,             !- Name
    MediumRough,              !- Roughness
    0.2,                      !- Thickness
    0.5,                      !- Conductivity
    1000,                     !- Density
    1000,                     !- Specific Heat
    0.9,                      !- Thermal Absorptance
    0.7,                      !- Solar Absorptance
    0.7;                      !- Visible Absorptance

MATERIAL,
    Roof Mat,                 !- Name
    MediumRough,              !- Roughness
    0.2,                      !- Thickness
    0.5,                      !- Conductivity
    1000,                     !- Density
    1000,                     !- Specific Heat
    0.9,                      !- Thermal Absorptance
    0.7,                      !- Solar Absorptance
    0.7;                      !- Visible Absorptance

MATERIAL,
    Floor Mat,                !- Name
    MediumRough,              !- Roughness
    0.2,                      !- Thickness
    0.5,                      !- Conductivity
    1000,                     !- Density
    1000,                     !- Specific Heat
    0.9,                      !- Thermal Absorptance
    0.7,                      !- Solar Absorptance
    0.7;                      !- Visible Absorptance

WINDOWMATERIAL:SIMPLEGLAZINGSYSTEM,
    Window Mat,               !- Name
    3,                        !- UFactor
    0.7,                      !- Solar Heat Gain Coefficient
    0.8;                      !- Visible Transmittance

CONSTRUCTION,
    Ext Wall,                 !- Name
    Ext Wall Mat;             !- Outside Layer

CONSTRUCTION,
    Roof,                     !- Name
    Roof Mat;                 !- Outside Layer

CONSTRUCTION,
    Floor,                    !- Name
    Floor Mat;                !- Outside Layer

CONSTRUCTION,
    Window,                   !- Name
    Window Mat;               !- Outside Layer

GLOBALGEOMETRYRULES,
    UpperLeftCorner,          !- Starting Vertex Position
    Counterclockwise,         !- Vertex Entry Direction
    Relative,                 !- Coordinate System
    Relative,                 !- Daylighting Reference Point Coordinate System
    Relative;                 !- Rectangular Surface Coordinate System

ZONE,
    Dynamic_Zone,             !- Name
    0,                        !- Direction of Relative North
    0,                        !- X Origin
    0,                        !- Y Origin
    0,                        !- Z Origin
    1,                        !- Type
    1,                        !- Multiplier
    autocalculate,            !- Ceiling Height
    autocalculate,            !- Volume
    autocalculate,            !- Floor Area
    ,                         !- Zone Inside Convection Algorithm
    ,                         !- Zone Outside Convection Algorithm
    Yes;                      !- Part of Total Floor Area

BUILDINGSURFACE:DETAILED,
    Wall_1,                   !- Name
    Wall,                     !- Surface Type
    Ext Wall,                 !- Construction Name
    Dynamic_Zone,             !- Zone Name
    ,                         !- Space Name
    Outdoors,                 !- Outside Boundary Condition
    ,                         !- Outside Boundary Condition Object
    SunExposed,               !- Sun Exposure
    WindExposed,              !- Wind Exposure
    autocalculate,            !- View Factor to Ground
    4,                        !- Number of Vertices
    14.7686,                  !- Vertex 1 Xcoordinate
    33.8466,                  !- Vertex 1 Ycoordinate
    9,                        !- Vertex 1 Zcoordinate
    14.7686,                  !- Vertex 2 Xcoordinate
    33.8466,                  !- Vertex 2 Ycoordinate
    0,                        !- Vertex 2 Zcoordinate
    23.0981,                  !- Vertex 3 Xcoordinate
    31.5073,                  !- Vertex 3 Ycoordinate
    0,                        !- Vertex 3 Zcoordinate
    23.0981,                  !- Vertex 4 Xcoordinate
    31.5073,                  !- Vertex 4 Ycoordinate
    9;                        !- Vertex 4 Zcoordinate

BUILDINGSURFACE:DETAILED,
    Wall_2,                   !- Name
    Wall,                     !- Surface Type
    Ext Wall,                 !- Construction Name
    Dynamic_Zone,             !- Zone Name
    ,                         !- Space Name
    Outdoors,                 !- Outside Boundary Condition
    ,                         !- Outside Boundary Condition Object
    SunExposed,               !- Sun Exposure
    WindExposed,              !- Wind Exposure
    autocalculate,            !- View Factor to Ground
    4,                        !- Number of Vertices
    23.0981,                  !- Vertex 1 Xcoordinate
    31.5073,                  !- Vertex 1 Ycoordinate
    9,                        !- Vertex 1 Zcoordinate
    23.0981,                  !- Vertex 2 Xcoordinate
    31.5073,                  !- Vertex 2 Ycoordinate
    0,                        !- Vertex 2 Zcoordinate
    14.4586,                  !- Vertex 3 Xcoordinate
    0.8965,                   !- Vertex 3 Ycoordinate
    0,                        !- Vertex 3 Zcoordinate
    14.4586,                  !- Vertex 4 Xcoordinate
    0.8965,                   !- Vertex 4 Ycoordinate
    9;                        !- Vertex 4 Zcoordinate

BUILDINGSURFACE:DETAILED,
    Wall_3,                   !- Name
    Wall,                     !- Surface Type
    Ext Wall,                 !- Construction Name
    Dynamic_Zone,             !- Zone Name
    ,                         !- Space Name
    Outdoors,                 !- Outside Boundary Condition
    ,                         !- Outside Boundary Condition Object
    SunExposed,               !- Sun Exposure
    WindExposed,              !- Wind Exposure
    autocalculate,            !- View Factor to Ground
    4,                        !- Number of Vertices
    14.4586,                  !- Vertex 1 Xcoordinate
    0.8965,                   !- Vertex 1 Ycoordinate
    9,                        !- Vertex 1 Zcoordinate
    14.4586,                  !- Vertex 2 Xcoordinate
    0.8965,                   !- Vertex 2 Ycoordinate
    0,                        !- Vertex 2 Zcoordinate
    6.3488,                   !- Vertex 3 Xcoordinate
    3.1713,                   !- Vertex 3 Ycoordinate
    0,                        !- Vertex 3 Zcoordinate
    6.3488,                   !- Vertex 4 Xcoordinate
    3.1713,                   !- Vertex 4 Ycoordinate
    9;                        !- Vertex 4 Zcoordinate

BUILDINGSURFACE:DETAILED,
    Wall_4,                   !- Name
    Wall,                     !- Surface Type
    Ext Wall,                 !- Construction Name
    Dynamic_Zone,             !- Zone Name
    ,                         !- Space Name
    Outdoors,                 !- Outside Boundary Condition
    ,                         !- Outside Boundary Condition Object
    SunExposed,               !- Sun Exposure
    WindExposed,              !- Wind Exposure
    autocalculate,            !- View Factor to Ground
    4,                        !- Number of Vertices
    6.3488,                   !- Vertex 1 Xcoordinate
    3.1713,                   !- Vertex 1 Ycoordinate
    9,                        !- Vertex 1 Zcoordinate
    6.3488,                   !- Vertex 2 Xcoordinate
    3.1713,                   !- Vertex 2 Ycoordinate
    0,                        !- Vertex 2 Zcoordinate
    5.4568,                   !- Vertex 3 Xcoordinate
    0,                        !- Vertex 3 Ycoordinate
    0,                        !- Vertex 3 Zcoordinate
    5.4568,                   !- Vertex 4 Xcoordinate
    0,                        !- Vertex 4 Ycoordinate
    9;                        !- Vertex 4 Zcoordinate

BUILDINGSURFACE:DETAILED,
    Wall_5,                   !- Name
    Wall,                     !- Surface Type
    Ext Wall,                 !- Construction Name
    Dynamic_Zone,             !- Zone Name
    ,                         !- Space Name
    Outdoors,                 !- Outside Boundary Condition
    ,                         !- Outside Boundary Condition Object
    SunExposed,               !- Sun Exposure
    WindExposed,              !- Wind Exposure
    autocalculate,            !- View Factor to Ground
    4,                        !- Number of Vertices
    5.4568,                   !- Vertex 1 Xcoordinate
    0,                        !- Vertex 1 Ycoordinate
    9,                        !- Vertex 1 Zcoordinate
    5.4568,                   !- Vertex 2 Xcoordinate
    0,                        !- Vertex 2 Ycoordinate
    0,                        !- Vertex 2 Zcoordinate
    0,                        !- Vertex 3 Xcoordinate
    1.5334,                   !- Vertex 3 Ycoordinate
    0,                        !- Vertex 3 Zcoordinate
    0,                        !- Vertex 4 Xcoordinate
    1.5334,                   !- Vertex 4 Ycoordinate
    9;                        !- Vertex 4 Zcoordinate

BUILDINGSURFACE:DETAILED,
    Wall_6,                   !- Name
    Wall,                     !- Surface Type
    Ext Wall,                 !- Construction Name
    Dynamic_Zone,             !- Zone Name
    ,                         !- Space Name
    Outdoors,                 !- Outside Boundary Condition
    ,                         !- Outside Boundary Condition Object
    SunExposed,               !- Sun Exposure
    WindExposed,              !- Wind Exposure
    autocalculate,            !- View Factor to Ground
    4,                        !- Number of Vertices
    0,                        !- Vertex 1 Xcoordinate
    1.5334,                   !- Vertex 1 Ycoordinate
    9,                        !- Vertex 1 Zcoordinate
    0,                        !- Vertex 2 Xcoordinate
    1.5334,                   !- Vertex 2 Ycoordinate
    0,                        !- Vertex 2 Zcoordinate
    0.3563,                   !- Vertex 3 Xcoordinate
    2.7886,                   !- Vertex 3 Ycoordinate
    0,                        !- Vertex 3 Zcoordinate
    0.3563,                   !- Vertex 4 Xcoordinate
    2.7886,                   !- Vertex 4 Ycoordinate
    9;                        !- Vertex 4 Zcoordinate

BUILDINGSURFACE:DETAILED,
    Wall_7,                   !- Name
    Wall,                     !- Surface Type
    Ext Wall,                 !- Construction Name
    Dynamic_Zone,             !- Zone Name
    ,                         !- Space Name
    Outdoors,                 !- Outside Boundary Condition
    ,                         !- Outside Boundary Condition Object
    SunExposed,               !- Sun Exposure
    WindExposed,              !- Wind Exposure
    autocalculate,            !- View Factor to Ground
    4,                        !- Number of Vertices
    0.3563,                   !- Vertex 1 Xcoordinate
    2.7886,                   !- Vertex 1 Ycoordinate
    9,                        !- Vertex 1 Zcoordinate
    0.3563,                   !- Vertex 2 Xcoordinate
    2.7886,                   !- Vertex 2 Ycoordinate
    0,                        !- Vertex 2 Zcoordinate
    0.7961,                   !- Vertex 3 Xcoordinate
    3.5282,                   !- Vertex 3 Ycoordinate
    0,                        !- Vertex 3 Zcoordinate
    0.7961,                   !- Vertex 4 Xcoordinate
    3.5282,                   !- Vertex 4 Ycoordinate
    9;                        !- Vertex 4 Zcoordinate

BUILDINGSURFACE:DETAILED,
    Wall_8,                   !- Name
    Wall,                     !- Surface Type
    Ext Wall,                 !- Construction Name
    Dynamic_Zone,             !- Zone Name
    ,                         !- Space Name
    Outdoors,                 !- Outside Boundary Condition
    ,                         !- Outside Boundary Condition Object
    SunExposed,               !- Sun Exposure
    WindExposed,              !- Wind Exposure
    autocalculate,            !- View Factor to Ground
    4,                        !- Number of Vertices
    0.7961,                   !- Vertex 1 Xcoordinate
    3.5282,                   !- Vertex 1 Ycoordinate
    9,                        !- Vertex 1 Zcoordinate
    0.7961,                   !- Vertex 2 Xcoordinate
    3.5282,                   !- Vertex 2 Ycoordinate
    0,                        !- Vertex 2 Zcoordinate
    1.4365,                   !- Vertex 3 Xcoordinate
    3.7252,                   !- Vertex 3 Ycoordinate
    0,                        !- Vertex 3 Zcoordinate
    1.4365,                   !- Vertex 4 Xcoordinate
    3.7252,                   !- Vertex 4 Ycoordinate
    9;                        !- Vertex 4 Zcoordinate

BUILDINGSURFACE:DETAILED,
    Wall_9,                   !- Name
    Wall,                     !- Surface Type
    Ext Wall,                 !- Construction Name
    Dynamic_Zone,             !- Zone Name
    ,                         !- Space Name
    Outdoors,                 !- Outside Boundary Condition
    ,                         !- Outside Boundary Condition Object
    SunExposed,               !- Sun Exposure
    WindExposed,              !- Wind Exposure
    autocalculate,            !- View Factor to Ground
    4,                        !- Number of Vertices
    1.4365,                   !- Vertex 1 Xcoordinate
    3.7252,                   !- Vertex 1 Ycoordinate
    9,                        !- Vertex 1 Zcoordinate
    1.4365,                   !- Vertex 2 Xcoordinate
    3.7252,                   !- Vertex 2 Ycoordinate
    0,                        !- Vertex 2 Zcoordinate
    2.0771,                   !- Vertex 3 Xcoordinate
    3.7551,                   !- Vertex 3 Ycoordinate
    0,                        !- Vertex 3 Zcoordinate
    2.0771,                   !- Vertex 4 Xcoordinate
    3.7551,                   !- Vertex 4 Ycoordinate
    9;                        !- Vertex 4 Zcoordinate

BUILDINGSURFACE:DETAILED,
    Wall_10,                  !- Name
    Wall,                     !- Surface Type
    Ext Wall,                 !- Construction Name
    Dynamic_Zone,             !- Zone Name
    ,                         !- Space Name
    Outdoors,                 !- Outside Boundary Condition
    ,                         !- Outside Boundary Condition Object
    SunExposed,               !- Sun Exposure
    WindExposed,              !- Wind Exposure
    autocalculate,            !- View Factor to Ground
    4,                        !- Number of Vertices
    2.0771,                   !- Vertex 1 Xcoordinate
    3.7551,                   !- Vertex 1 Ycoordinate
    9,                        !- Vertex 1 Zcoordinate
    2.0771,                   !- Vertex 2 Xcoordinate
    3.7551,                   !- Vertex 2 Ycoordinate
    0,                        !- Vertex 2 Zcoordinate
    2.8319,                   !- Vertex 3 Xcoordinate
    6.4531,                   !- Vertex 3 Ycoordinate
    0,                        !- Vertex 3 Zcoordinate
    2.8319,                   !- Vertex 4 Xcoordinate
    6.4531,                   !- Vertex 4 Ycoordinate
    9;                        !- Vertex 4 Zcoordinate

BUILDINGSURFACE:DETAILED,
    Wall_11,                  !- Name
    Wall,                     !- Surface Type
    Ext Wall,                 !- Construction Name
    Dynamic_Zone,             !- Zone Name
    ,                         !- Space Name
    Outdoors,                 !- Outside Boundary Condition
    ,                         !- Outside Boundary Condition Object
    SunExposed,               !- Sun Exposure
    WindExposed,              !- Wind Exposure
    autocalculate,            !- View Factor to Ground
    4,                        !- Number of Vertices
    2.8319,                   !- Vertex 1 Xcoordinate
    6.4531,                   !- Vertex 1 Ycoordinate
    9,                        !- Vertex 1 Zcoordinate
    2.8319,                   !- Vertex 2 Xcoordinate
    6.4531,                   !- Vertex 2 Ycoordinate
    0,                        !- Vertex 2 Zcoordinate
    5.0929,                   !- Vertex 3 Xcoordinate
    5.8165,                   !- Vertex 3 Ycoordinate
    0,                        !- Vertex 3 Zcoordinate
    5.0929,                   !- Vertex 4 Xcoordinate
    5.8165,                   !- Vertex 4 Ycoordinate
    9;                        !- Vertex 4 Zcoordinate

BUILDINGSURFACE:DETAILED,
    Wall_12,                  !- Name
    Wall,                     !- Surface Type
    Ext Wall,                 !- Construction Name
    Dynamic_Zone,             !- Zone Name
    ,                         !- Space Name
    Outdoors,                 !- Outside Boundary Condition
    ,                         !- Outside Boundary Condition Object
    SunExposed,               !- Sun Exposure
    WindExposed,              !- Wind Exposure
    autocalculate,            !- View Factor to Ground
    4,                        !- Number of Vertices
    5.0929,                   !- Vertex 1 Xcoordinate
    5.8165,                   !- Vertex 1 Ycoordinate
    9,                        !- Vertex 1 Zcoordinate
    5.0929,                   !- Vertex 2 Xcoordinate
    5.8165,                   !- Vertex 2 Ycoordinate
    0,                        !- Vertex 2 Zcoordinate
    12.5077,                  !- Vertex 3 Xcoordinate
    32.0666,                  !- Vertex 3 Ycoordinate
    0,                        !- Vertex 3 Zcoordinate
    12.5077,                  !- Vertex 4 Xcoordinate
    32.0666,                  !- Vertex 4 Ycoordinate
    9;                        !- Vertex 4 Zcoordinate

BUILDINGSURFACE:DETAILED,
    Wall_13,                  !- Name
    Wall,                     !- Surface Type
    Ext Wall,                 !- Construction Name
    Dynamic_Zone,             !- Zone Name
    ,                         !- Space Name
    Outdoors,                 !- Outside Boundary Condition
    ,                         !- Outside Boundary Condition Object
    SunExposed,               !- Sun Exposure
    WindExposed,              !- Wind Exposure
    autocalculate,            !- View Factor to Ground
    4,                        !- Number of Vertices
    12.5077,                  !- Vertex 1 Xcoordinate
    32.0666,                  !- Vertex 1 Ycoordinate
    9,                        !- Vertex 1 Zcoordinate
    12.5077,                  !- Vertex 2 Xcoordinate
    32.0666,                  !- Vertex 2 Ycoordinate
    0,                        !- Vertex 2 Zcoordinate
    14.1366,                  !- Vertex 3 Xcoordinate
    31.6114,                  !- Vertex 3 Ycoordinate
    0,                        !- Vertex 3 Zcoordinate
    14.1366,                  !- Vertex 4 Xcoordinate
    31.6114,                  !- Vertex 4 Ycoordinate
    9;                        !- Vertex 4 Zcoordinate

BUILDINGSURFACE:DETAILED,
    Wall_14,                  !- Name
    Wall,                     !- Surface Type
    Ext Wall,                 !- Construction Name
    Dynamic_Zone,             !- Zone Name
    ,                         !- Space Name
    Outdoors,                 !- Outside Boundary Condition
    ,                         !- Outside Boundary Condition Object
    SunExposed,               !- Sun Exposure
    WindExposed,              !- Wind Exposure
    autocalculate,            !- View Factor to Ground
    4,                        !- Number of Vertices
    14.1366,                  !- Vertex 1 Xcoordinate
    31.6114,                  !- Vertex 1 Ycoordinate
    9,                        !- Vertex 1 Zcoordinate
    14.1366,                  !- Vertex 2 Xcoordinate
    31.6114,                  !- Vertex 2 Ycoordinate
    0,                        !- Vertex 2 Zcoordinate
    14.7686,                  !- Vertex 3 Xcoordinate
    33.8466,                  !- Vertex 3 Ycoordinate
    0,                        !- Vertex 3 Zcoordinate
    14.7686,                  !- Vertex 4 Xcoordinate
    33.8466,                  !- Vertex 4 Ycoordinate
    9;                        !- Vertex 4 Zcoordinate

BUILDINGSURFACE:DETAILED,
    Roof_Main,                !- Name
    Roof,                     !- Surface Type
    Roof,                     !- Construction Name
    Dynamic_Zone,             !- Zone Name
    ,                         !- Space Name
    Outdoors,                 !- Outside Boundary Condition
    ,                         !- Outside Boundary Condition Object
    SunExposed,               !- Sun Exposure
    WindExposed,              !- Wind Exposure
    autocalculate,            !- View Factor to Ground
    14,                       !- Number of Vertices
    14.7686,                  !- Vertex 1 Xcoordinate
    33.8466,                  !- Vertex 1 Ycoordinate
    9,                        !- Vertex 1 Zcoordinate
    23.0981,                  !- Vertex 2 Xcoordinate
    31.5073,                  !- Vertex 2 Ycoordinate
    9,                        !- Vertex 2 Zcoordinate
    14.4586,                  !- Vertex 3 Xcoordinate
    0.8965,                   !- Vertex 3 Ycoordinate
    9,                        !- Vertex 3 Zcoordinate
    6.3488,                   !- Vertex 4 Xcoordinate
    3.1713,                   !- Vertex 4 Ycoordinate
    9,                        !- Vertex 4 Zcoordinate
    5.4568,                   !- Vertex 5 Xcoordinate
    0,                        !- Vertex 5 Ycoordinate
    9,                        !- Vertex 5 Zcoordinate
    0,                        !- Vertex 6 Xcoordinate
    1.5334,                   !- Vertex 6 Ycoordinate
    9,                        !- Vertex 6 Zcoordinate
    0.3563,                   !- Vertex 7 Xcoordinate
    2.7886,                   !- Vertex 7 Ycoordinate
    9,                        !- Vertex 7 Zcoordinate
    0.7961,                   !- Vertex 8 Xcoordinate
    3.5282,                   !- Vertex 8 Ycoordinate
    9,                        !- Vertex 8 Zcoordinate
    1.4365,                   !- Vertex 9 Xcoordinate
    3.7252,                   !- Vertex 9 Ycoordinate
    9,                        !- Vertex 9 Zcoordinate
    2.0771,                   !- Vertex 10 Xcoordinate
    3.7551,                   !- Vertex 10 Ycoordinate
    9,                        !- Vertex 10 Zcoordinate
    2.8319,                   !- Vertex 11 Xcoordinate
    6.4531,                   !- Vertex 11 Ycoordinate
    9,                        !- Vertex 11 Zcoordinate
    5.0929,                   !- Vertex 12 Xcoordinate
    5.8165,                   !- Vertex 12 Ycoordinate
    9,                        !- Vertex 12 Zcoordinate
    12.5077,                  !- Vertex 13 Xcoordinate
    32.0666,                  !- Vertex 13 Ycoordinate
    9,                        !- Vertex 13 Zcoordinate
    14.1366,                  !- Vertex 14 Xcoordinate
    31.6114,                  !- Vertex 14 Ycoordinate
    9;                        !- Vertex 14 Zcoordinate

BUILDINGSURFACE:DETAILED,
    Floor_Main,               !- Name
    Floor,                    !- Surface Type
    Floor,                    !- Construction Name
    Dynamic_Zone,             !- Zone Name
    ,                         !- Space Name
    Ground,                   !- Outside Boundary Condition
    ,                         !- Outside Boundary Condition Object
    SunExposed,               !- Sun Exposure
    WindExposed,              !- Wind Exposure
    autocalculate,            !- View Factor to Ground
    14,                       !- Number of Vertices
    14.1366,                  !- Vertex 1 Xcoordinate
    31.6114,                  !- Vertex 1 Ycoordinate
    0,                        !- Vertex 1 Zcoordinate
    12.5077,                  !- Vertex 2 Xcoordinate
    32.0666,                  !- Vertex 2 Ycoordinate
    0,                        !- Vertex 2 Zcoordinate
    5.0929,                   !- Vertex 3 Xcoordinate
    5.8165,                   !- Vertex 3 Ycoordinate
    0,                        !- Vertex 3 Zcoordinate
    2.8319,                   !- Vertex 4 Xcoordinate
    6.4531,                   !- Vertex 4 Ycoordinate
    0,                        !- Vertex 4 Zcoordinate
    2.0771,                   !- Vertex 5 Xcoordinate
    3.7551,                   !- Vertex 5 Ycoordinate
    0,                        !- Vertex 5 Zcoordinate
    1.4365,                   !- Vertex 6 Xcoordinate
    3.7252,                   !- Vertex 6 Ycoordinate
    0,                        !- Vertex 6 Zcoordinate
    0.7961,                   !- Vertex 7 Xcoordinate
    3.5282,                   !- Vertex 7 Ycoordinate
    0,                        !- Vertex 7 Zcoordinate
    0.3563,                   !- Vertex 8 Xcoordinate
    2.7886,                   !- Vertex 8 Ycoordinate
    0,                        !- Vertex 8 Zcoordinate
    0,                        !- Vertex 9 Xcoordinate
    1.5334,                   !- Vertex 9 Ycoordinate
    0,                        !- Vertex 9 Zcoordinate
    5.4568,                   !- Vertex 10 Xcoordinate
    0,                        !- Vertex 10 Ycoordinate
    0,                        !- Vertex 10 Zcoordinate
    6.3488,                   !- Vertex 11 Xcoordinate
    3.1713,                   !- Vertex 11 Ycoordinate
    0,                        !- Vertex 11 Zcoordinate
    14.4586,                  !- Vertex 12 Xcoordinate
    0.8965,                   !- Vertex 12 Ycoordinate
    0,                        !- Vertex 12 Zcoordinate
    23.0981,                  !- Vertex 13 Xcoordinate
    31.5073,                  !- Vertex 13 Ycoordinate
    0,                        !- Vertex 13 Zcoordinate
    14.7686,                  !- Vertex 14 Xcoordinate
    33.8466,                  !- Vertex 14 Ycoordinate
    0;                        !- Vertex 14 Zcoordinate

FENESTRATIONSURFACE:DETAILED,
    Window_1,                 !- Name
    Window,                   !- Surface Type
    Window,                   !- Construction Name
    Wall_1,                   !- Building Surface Name
    ,                         !- Outside Boundary Condition Object
    autocalculate,            !- View Factor to Ground
    ,                         !- Frame and Divider Name
    1,                        !- Multiplier
    4,                        !- Number of Vertices
    16.9479,                  !- Vertex 1 Xcoordinate
    33.2345,                  !- Vertex 1 Ycoordinate
    6.6452,                   !- Vertex 1 Zcoordinate
    16.9479,                  !- Vertex 2 Xcoordinate
    33.2345,                  !- Vertex 2 Ycoordinate
    2.3548,                   !- Vertex 2 Zcoordinate
    20.9188,                  !- Vertex 3 Xcoordinate
    32.1193,                  !- Vertex 3 Ycoordinate